!-Generator IDFEditor 1.51
!-Option SortedOrder

!-NOTE: All comments with '!-' are ignored by the IDFEditor and are generated automatically.
!-      Use '!' comments if they need to be retained when using the IDFEditor.


!-   ===========  ALL OBJECTS IN CLASS: VERSION ===========

Version,
    22.1;                    !- Version Identifier


!-   ===========  ALL OBJECTS IN CLASS: SIMULATIONCONTROL ===========

SimulationControl,
    No,                      !- Do Zone Sizing Calculation
    Yes,                     !- Do System Sizing Calculation
    No,                      !- Do Plant Sizing Calculation
    No,                      !- Run Simulation for Sizing Periods
    Yes,                     !- Run Simulation for Weather File Run Periods
    Yes,                     !- Do HVAC Sizing Simulation for Sizing Periods
    1;                       !- Maximum Number of HVAC Sizing Simulation Passes


!-   ===========  ALL OBJECTS IN CLASS: BUILDING ===========

Building,
    SingleFamilyHouse,       !- Name
    0.0,                     !- North Axis {deg}
    Suburbs,                 !- Terrain
    0.04,                    !- Loads Convergence Tolerance Value {W}
    0.4,                     !- Temperature Convergence Tolerance Value {deltaC}
    FullExteriorWithReflections,  !- Solar Distribution
    25,                      !- Maximum Number of Warmup Days
    6;                       !- Minimum Number of Warmup Days


!-   ===========  ALL OBJECTS IN CLASS: SHADOWCALCULATION ===========

ShadowCalculation,
    PolygonClipping,         !- Shading Calculation Method
    Periodic,                !- Shading Calculation Update Frequency Method
    20,                      !- Shading Calculation Update Frequency
    15000,                   !- Maximum Figures in Shadow Overlap Calculations
    SutherlandHodgman,       !- Polygon Clipping Algorithm
    512,                     !- Pixel Counting Resolution
    SimpleSkyDiffuseModeling,!- Sky Diffuse Modeling Algorithm
    No,                      !- Output External Shading Calculation Results
    No,                      !- Disable Self-Shading Within Shading Zone Groups
    No;                      !- Disable Self-Shading From Shading Zone Groups to Other Zones


!-   ===========  ALL OBJECTS IN CLASS: SURFACECONVECTIONALGORITHM:INSIDE ===========

SurfaceConvectionAlgorithm:Inside,
    TARP;                    !- Algorithm


!-   ===========  ALL OBJECTS IN CLASS: SURFACECONVECTIONALGORITHM:OUTSIDE ===========

SurfaceConvectionAlgorithm:Outside,
    AdaptiveConvectionAlgorithm;  !- Algorithm


!-   ===========  ALL OBJECTS IN CLASS: HEATBALANCEALGORITHM ===========

HeatBalanceAlgorithm,
    ConductionTransferFunction,  !- Algorithm
    200,                     !- Surface Temperature Upper Limit {C}
    ,                        !- Minimum Surface Convection Heat Transfer Coefficient Value {W/m2-K}
    1000;                    !- Maximum Surface Convection Heat Transfer Coefficient Value {W/m2-K}


!-   ===========  ALL OBJECTS IN CLASS: TIMESTEP ===========

Timestep,
    4;                       !- Number of Timesteps per Hour


!-   ===========  ALL OBJECTS IN CLASS: SITE:LOCATION ===========

Site:Location,
    Brasilia BRA,            !- Name
    -15.7426,                !- Latitude {deg}
    -47.8960,                !- Longitude {deg}
    -3.0,                    !- Time Zone {hr}
    1056.0;                  !- Elevation {m}


!-   ===========  ALL OBJECTS IN CLASS: SIZINGPERIOD:WEATHERFILEDAYS ===========

SizingPeriod:WeatherFileDays,
    SizingPeriod,            !- Name
    1,                       !- Begin Month
    1,                       !- Begin Day of Month
    12,                      !- End Month
    31,                      !- End Day of Month
    Sunday,                  !- Day of Week for Start Day
    Yes,                     !- Use Weather File Daylight Saving Period
    Yes;                     !- Use Weather File Rain and Snow Indicators


!-   ===========  ALL OBJECTS IN CLASS: RUNPERIOD ===========

RunPeriod,
    ANNUAL,                  !- Name
    1,                       !- Begin Month
    1,                       !- Begin Day of Month
    ,                        !- Begin Year
    12,                      !- End Month
    31,                      !- End Day of Month
    ,                        !- End Year
    ,                        !- Day of Week for Start Day
    Yes,                     !- Use Weather File Holidays and Special Days
    Yes,                     !- Use Weather File Daylight Saving Period
    No,                      !- Apply Weekend Holiday Rule
    Yes,                     !- Use Weather File Rain Indicators
    Yes;                     !- Use Weather File Snow Indicators
! 
! 
!-   ===========  ALL OBJECTS IN CLASS: SITE:GROUNDTEMPERATURE:BUILDINGSURFACE ===========
! 
! Site:GroundTemperature:BuildingSurface,
!     23.4,                    !- January Ground Temperature {C}
!     23.0,                    !- February Ground Temperature {C}
!     22.3,                    !- March Ground Temperature {C}
!     21.7,                    !- April Ground Temperature {C}
!     20.5,                    !- May Ground Temperature {C}
!     19.8,                    !- June Ground Temperature {C}
!     19.7,                    !- July Ground Temperature {C}
!     20.0,                    !- August Ground Temperature {C}
!     20.8,                    !- September Ground Temperature {C}
!     21.7,                    !- October Ground Temperature {C}
!     22.6,                    !- November Ground Temperature {C}
!     23.2;                    !- December Ground Temperature {C}


!-   ===========  ALL OBJECTS IN CLASS: SITE:GROUNDTEMPERATURE:SHALLOW ===========

Site:GroundTemperature:Shallow,
    22.9,                    !- January Surface Ground Temperature {C}
    22.8,                    !- February Surface Ground Temperature {C}
    22.4,                    !- March Surface Ground Temperature {C}
    22.0,                    !- April Surface Ground Temperature {C}
    21.0,                    !- May Surface Ground Temperature {C}
    20.4,                    !- June Surface Ground Temperature {C}
    20.2,                    !- July Surface Ground Temperature {C}
    20.2,                    !- August Surface Ground Temperature {C}
    20.7,                    !- September Surface Ground Temperature {C}
    21.3,                    !- October Surface Ground Temperature {C}
    22.0,                    !- November Surface Ground Temperature {C}
    22.6;                    !- December Surface Ground Temperature {C}


!-   ===========  ALL OBJECTS IN CLASS: SITE:WATERMAINSTEMPERATURE ===========

Site:WaterMainsTemperature,
    CorrelationFromWeatherFile;  !- Calculation Method


!-   ===========  ALL OBJECTS IN CLASS: SCHEDULETYPELIMITS ===========

ScheduleTypeLimits,
    TYPE_LIMITS_SCH_DAYLIGHTING_CON_ZN_2_Kitchen,  !- Name
    0.0,                     !- Lower Limit Value
    1.0,                     !- Upper Limit Value
    Continuous,              !- Numeric Type
    Dimensionless;           !- Unit Type

ScheduleTypeLimits,
    TYPE_LIMITS_SCH_ELECT_ZN_5_SingleBedroom_GeneralEquipment_0,  !- Name
    0.0,                     !- Lower Limit Value
    1.0,                     !- Upper Limit Value
    Continuous,              !- Numeric Type
    Dimensionless;           !- Unit Type

ScheduleTypeLimits,
    TYPE_LIMITS_SCH_VENT_DFR_ZN_3_Bathroom_0,  !- Name
    0.0,                     !- Lower Limit Value
    1.0,                     !- Upper Limit Value
    Continuous,              !- Numeric Type
    Dimensionless;           !- Unit Type

ScheduleTypeLimits,
    TYPE_LIMITS_SCH_CO2_SP_CTRL_CONTAM_ZN_7_DoubleBedroom,  !- Name
    0.0,                     !- Lower Limit Value
    2000.0,                  !- Upper Limit Value
    Continuous,              !- Numeric Type
    Dimensionless;           !- Unit Type

ScheduleTypeLimits,
    TYPE_LIMITS_SCH_CO2_SP_CTRL_CONTAM_ZN_6_DoubleBedroom,  !- Name
    0.0,                     !- Lower Limit Value
    2000.0,                  !- Upper Limit Value
    Continuous,              !- Numeric Type
    Dimensionless;           !- Unit Type

ScheduleTypeLimits,
    TYPE_LIMITS_SCH_LIGHTS_ZN_0_Hall,  !- Name
    0.0,                     !- Lower Limit Value
    1.0,                     !- Upper Limit Value
    Continuous,              !- Numeric Type
    Dimensionless;           !- Unit Type

ScheduleTypeLimits,
    TYPE_LIMITS_SCH_ACT_PEOPLE_ZN_7_DoubleBedroom,  !- Name
    0.0,                     !- Lower Limit Value
    72.0,                    !- Upper Limit Value
    Continuous,              !- Numeric Type
    Power;                   !- Unit Type

ScheduleTypeLimits,
    TYPE_LIMITS_SCH_ACT_PEOPLE_ZN_6_DoubleBedroom,  !- Name
    0.0,                     !- Lower Limit Value
    72.0,                    !- Upper Limit Value
    Continuous,              !- Numeric Type
    Power;                   !- Unit Type

ScheduleTypeLimits,
    TYPE_LIMITS_SCH_LIGHTS_ZN_7_DoubleBedroom,  !- Name
    0.0,                     !- Lower Limit Value
    1.0,                     !- Upper Limit Value
    Continuous,              !- Numeric Type
    Dimensionless;           !- Unit Type

ScheduleTypeLimits,
    TYPE_LIMITS_SCH_FLOW_RATE_FRACT_ZN_2_Kitchen_WashingMachine_3,  !- Name
    0.0,                     !- Lower Limit Value
    1.0,                     !- Upper Limit Value
    Continuous,              !- Numeric Type
    Dimensionless;           !- Unit Type

ScheduleTypeLimits,
    TYPE_LIMITS_SCH_NUMBER_PEOPLE_ZN_1_LivingRoom,  !- Name
    0.0,                     !- Lower Limit Value
    1.0,                     !- Upper Limit Value
    Continuous,              !- Numeric Type
    Dimensionless;           !- Unit Type

ScheduleTypeLimits,
    TYPE_LIMITS_SCH_REMOVAL_SOURCE_SINK_GEN_CONST_ZN_7_DoubleBedroom,  !- Name
    0.0,                     !- Lower Limit Value
    1.0,                     !- Upper Limit Value
    Discrete,                !- Numeric Type
    Availability;            !- Unit Type

ScheduleTypeLimits,
    TYPE_LIMITS_SCH_INVERTER_HybridProduction_Pika Hybrid X3001,  !- Name
    0.0,                     !- Lower Limit Value
    1.0,                     !- Upper Limit Value
    Discrete,                !- Numeric Type
    Availability;            !- Unit Type

ScheduleTypeLimits,
    TYPE_LIMITS_SCH_GENERATION_SOURCE_SINK_GEN_CONST_ZN_6_DoubleBedroom,  !- Name
    0.0,                     !- Lower Limit Value
    1.0,                     !- Upper Limit Value
    Discrete,                !- Numeric Type
    Availability;            !- Unit Type

ScheduleTypeLimits,
    TYPE_LIMITS_SCH_FLOW_RATE_FRACT_ZN_8_PrivateBathroom_Shower_2,  !- Name
    0.0,                     !- Lower Limit Value
    1.0,                     !- Upper Limit Value
    Continuous,              !- Numeric Type
    Dimensionless;           !- Unit Type

ScheduleTypeLimits,
    TYPE_LIMITS_SCH_INFILTRATION_ZN_3_Bathroom,  !- Name
    0.0,                     !- Lower Limit Value
    1.0,                     !- Upper Limit Value
    Discrete,                !- Numeric Type
    Availability;            !- Unit Type

ScheduleTypeLimits,
    TYPE_LIMITS_SCH_NUMBER_PEOPLE_ZN_6_DoubleBedroom,  !- Name
    0.0,                     !- Lower Limit Value
    1.0,                     !- Upper Limit Value
    Continuous,              !- Numeric Type
    Dimensionless;           !- Unit Type

ScheduleTypeLimits,
    TYPE_LIMITS_SCH_ELECT_ZN_2_Kitchen_Dishwasher_2,  !- Name
    0.0,                     !- Lower Limit Value
    1.0,                     !- Upper Limit Value
    Continuous,              !- Numeric Type
    Dimensionless;           !- Unit Type

ScheduleTypeLimits,
    TYPE_LIMITS_SCH_INFILTRATION_ZN_6_DoubleBedroom,  !- Name
    0.0,                     !- Lower Limit Value
    1.0,                     !- Upper Limit Value
    Discrete,                !- Numeric Type
    Availability;            !- Unit Type

ScheduleTypeLimits,
    TYPE_LIMITS_SCH_DAYLIGHTING_CON_ZN_1_LivingRoom,  !- Name
    0.0,                     !- Lower Limit Value
    1.0,                     !- Upper Limit Value
    Continuous,              !- Numeric Type
    Dimensionless;           !- Unit Type

ScheduleTypeLimits,
    TYPE_LIMITS_SCH_ELECT_ZN_2_Kitchen_GeneralEquipment_0,  !- Name
    0.0,                     !- Lower Limit Value
    1.0,                     !- Upper Limit Value
    Continuous,              !- Numeric Type
    Dimensionless;           !- Unit Type

ScheduleTypeLimits,
    TYPE_LIMITS_SCH_LIGHTS_ZN_4_Corridor,  !- Name
    0.0,                     !- Lower Limit Value
    1.0,                     !- Upper Limit Value
    Continuous,              !- Numeric Type
    Dimensionless;           !- Unit Type

ScheduleTypeLimits,
    TYPE_LIMITS_SCH_ILAS_ZN_5_SingleBedroom,  !- Name
    0.0,                     !- Lower Limit Value
    1.0,                     !- Upper Limit Value
    Continuous,              !- Numeric Type
    Dimensionless;           !- Unit Type

ScheduleTypeLimits,
    TYPE_LIMITS_SCH_INFILTRATION_ZN_1_LivingRoom,  !- Name
    0.0,                     !- Lower Limit Value
    1.0,                     !- Upper Limit Value
    Discrete,                !- Numeric Type
    Availability;            !- Unit Type

ScheduleTypeLimits,
    TYPE_LIMITS_SCH_LIGHTS_ZN_8_PrivateBathroom,  !- Name
    0.0,                     !- Lower Limit Value
    1.0,                     !- Upper Limit Value
    Continuous,              !- Numeric Type
    Dimensionless;           !- Unit Type

ScheduleTypeLimits,
    TYPE_LIMITS_SCH_ELECT_ZN_8_PrivateBathroom_GeneralEquipment_0,  !- Name
    0.0,                     !- Lower Limit Value
    1.0,                     !- Upper Limit Value
    Continuous,              !- Numeric Type
    Dimensionless;           !- Unit Type

ScheduleTypeLimits,
    TYPE_LIMITS_SCH_ELECT_ZN_6_DoubleBedroom_GeneralEquipment_0,  !- Name
    0.0,                     !- Lower Limit Value
    1.0,                     !- Upper Limit Value
    Continuous,              !- Numeric Type
    Dimensionless;           !- Unit Type

ScheduleTypeLimits,
    TYPE_LIMITS_SCH_VENT_DFR_ZN_2_Kitchen_0,  !- Name
    0.0,                     !- Lower Limit Value
    1.0,                     !- Upper Limit Value
    Continuous,              !- Numeric Type
    Dimensionless;           !- Unit Type

ScheduleTypeLimits,
    TYPE_LIMITS_SCH_DAYLIGHTING_CON_ZN_7_DoubleBedroom,  !- Name
    0.0,                     !- Lower Limit Value
    1.0,                     !- Upper Limit Value
    Continuous,              !- Numeric Type
    Dimensionless;           !- Unit Type

ScheduleTypeLimits,
    TYPE_LIMITS_SCH_LIGHTS_ZN_5_SingleBedroom,  !- Name
    0.0,                     !- Lower Limit Value
    1.0,                     !- Upper Limit Value
    Continuous,              !- Numeric Type
    Dimensionless;           !- Unit Type

ScheduleTypeLimits,
    TYPE_LIMITS_SCH_FLOW_RATE_FRACT_ZN_3_Bathroom_Sink_1,  !- Name
    0.0,                     !- Lower Limit Value
    1.0,                     !- Upper Limit Value
    Continuous,              !- Numeric Type
    Dimensionless;           !- Unit Type

ScheduleTypeLimits,
    TYPE_LIMITS_SCH_ELECT_ZN_0_Hall_GeneralEquipment_0,  !- Name
    0.0,                     !- Lower Limit Value
    1.0,                     !- Upper Limit Value
    Continuous,              !- Numeric Type
    Dimensionless;           !- Unit Type

ScheduleTypeLimits,
    TYPE_LIMITS_SCH_NUMBER_PEOPLE_ZN_7_DoubleBedroom,  !- Name
    0.0,                     !- Lower Limit Value
    1.0,                     !- Upper Limit Value
    Continuous,              !- Numeric Type
    Dimensionless;           !- Unit Type

ScheduleTypeLimits,
    TYPE_LIMITS_SCH_ELECT_ZN_4_Corridor_GeneralEquipment_0,  !- Name
    0.0,                     !- Lower Limit Value
    1.0,                     !- Upper Limit Value
    Continuous,              !- Numeric Type
    Dimensionless;           !- Unit Type

ScheduleTypeLimits,
    TYPE_LIMITS_SCH_ACT_PEOPLE_ZN_1_LivingRoom,  !- Name
    0.0,                     !- Lower Limit Value
    110.0,                   !- Upper Limit Value
    Continuous,              !- Numeric Type
    Power;                   !- Unit Type

ScheduleTypeLimits,
    TYPE_LIMITS_SCH_GENERATOR_PV_Benq_0_2_0_2,  !- Name
    0.0,                     !- Lower Limit Value
    1.0,                     !- Upper Limit Value
    Discrete,                !- Numeric Type
    Availability;            !- Unit Type

ScheduleTypeLimits,
    TYPE_LIMITS_SCH_LIGHTS_ZN_1_LivingRoom,  !- Name
    0.0,                     !- Lower Limit Value
    1.0,                     !- Upper Limit Value
    Continuous,              !- Numeric Type
    Dimensionless;           !- Unit Type

ScheduleTypeLimits,
    TYPE_LIMITS_SCH_ACT_PEOPLE_ZN_0_Hall,  !- Name
    0.0,                     !- Lower Limit Value
    190.0,                   !- Upper Limit Value
    Continuous,              !- Numeric Type
    Power;                   !- Unit Type

ScheduleTypeLimits,
    TYPE_LIMITS_SCH_ILAS_ZN_7_DoubleBedroom,  !- Name
    0.0,                     !- Lower Limit Value
    1.0,                     !- Upper Limit Value
    Continuous,              !- Numeric Type
    Dimensionless;           !- Unit Type

ScheduleTypeLimits,
    TYPE_LIMITS_SCH_NUMBER_PEOPLE_ZN_4_Corridor,  !- Name
    0.0,                     !- Lower Limit Value
    1.0,                     !- Upper Limit Value
    Continuous,              !- Numeric Type
    Dimensionless;           !- Unit Type

ScheduleTypeLimits,
    TYPE_LIMITS_SCH_STORAGE_HybridProduction_LG CHEM RESU 10,  !- Name
    0.0,                     !- Lower Limit Value
    1.0,                     !- Upper Limit Value
    Discrete,                !- Numeric Type
    Availability;            !- Unit Type

ScheduleTypeLimits,
    TYPE_LIMITS_SCH_INFILTRATION_ZN_0_Hall,  !- Name
    0.0,                     !- Lower Limit Value
    1.0,                     !- Upper Limit Value
    Discrete,                !- Numeric Type
    Availability;            !- Unit Type

ScheduleTypeLimits,
    TYPE_LIMITS_SCH_ACT_PEOPLE_ZN_5_SingleBedroom,  !- Name
    0.0,                     !- Lower Limit Value
    72.0,                    !- Upper Limit Value
    Continuous,              !- Numeric Type
    Power;                   !- Unit Type

ScheduleTypeLimits,
    TYPE_LIMITS_SCH_TARGET_TEMP_ZN_8_PrivateBathroom_Shower_2,  !- Name
    0.0,                     !- Lower Limit Value
    100.0,                   !- Upper Limit Value
    Continuous,              !- Numeric Type
    Temperature;             !- Unit Type

ScheduleTypeLimits,
    TYPE_LIMITS_SCH_NUMBER_PEOPLE_ZN_3_Bathroom,  !- Name
    0.0,                     !- Lower Limit Value
    1.0,                     !- Upper Limit Value
    Continuous,              !- Numeric Type
    Dimensionless;           !- Unit Type

ScheduleTypeLimits,
    TYPE_LIMITS_SCH_LIGHTS_ZN_6_DoubleBedroom,  !- Name
    0.0,                     !- Lower Limit Value
    1.0,                     !- Upper Limit Value
    Continuous,              !- Numeric Type
    Dimensionless;           !- Unit Type

ScheduleTypeLimits,
    TYPE_LIMITS_SCH_ILAS_ZN_6_DoubleBedroom,  !- Name
    0.0,                     !- Lower Limit Value
    1.0,                     !- Upper Limit Value
    Continuous,              !- Numeric Type
    Dimensionless;           !- Unit Type

ScheduleTypeLimits,
    TYPE_LIMITS_SCH_NUMBER_PEOPLE_ZN_5_SingleBedroom,  !- Name
    0.0,                     !- Lower Limit Value
    1.0,                     !- Upper Limit Value
    Continuous,              !- Numeric Type
    Dimensionless;           !- Unit Type

ScheduleTypeLimits,
    TYPE_LIMITS_SCH_INFILTRATION_ZN_4_Corridor,  !- Name
    0.0,                     !- Lower Limit Value
    1.0,                     !- Upper Limit Value
    Discrete,                !- Numeric Type
    Availability;            !- Unit Type

ScheduleTypeLimits,
    TYPE_LIMITS_SCH_NUMBER_PEOPLE_ZN_0_Hall,  !- Name
    0.0,                     !- Lower Limit Value
    1.0,                     !- Upper Limit Value
    Continuous,              !- Numeric Type
    Dimensionless;           !- Unit Type

ScheduleTypeLimits,
    TYPE_LIMITS_SCH_GENERATOR_PV_Benq_0_1_0_1,  !- Name
    0.0,                     !- Lower Limit Value
    1.0,                     !- Upper Limit Value
    Discrete,                !- Numeric Type
    Availability;            !- Unit Type

ScheduleTypeLimits,
    TYPE_LIMITS_SCH_FLOW_RATE_FRACT_ZN_3_Bathroom_Toilet_3,  !- Name
    0.0,                     !- Lower Limit Value
    1.0,                     !- Upper Limit Value
    Continuous,              !- Numeric Type
    Dimensionless;           !- Unit Type

ScheduleTypeLimits,
    TYPE_LIMITS_SCH_ELECT_ZN_3_Bathroom_GeneralEquipment_0,  !- Name
    0.0,                     !- Lower Limit Value
    1.0,                     !- Upper Limit Value
    Continuous,              !- Numeric Type
    Dimensionless;           !- Unit Type

ScheduleTypeLimits,
    TYPE_LIMITS_SCH_ELECT_ZN_7_DoubleBedroom_GeneralEquipment_0,  !- Name
    0.0,                     !- Lower Limit Value
    1.0,                     !- Upper Limit Value
    Continuous,              !- Numeric Type
    Dimensionless;           !- Unit Type

ScheduleTypeLimits,
    TYPE_LIMITS_SCH_REMOVAL_SOURCE_SINK_GEN_CONST_ZN_6_DoubleBedroom,  !- Name
    0.0,                     !- Lower Limit Value
    1.0,                     !- Upper Limit Value
    Discrete,                !- Numeric Type
    Availability;            !- Unit Type

ScheduleTypeLimits,
    TYPE_LIMITS_SCH_ELECT_ZN_1_LivingRoom_GeneralEquipment_0,  !- Name
    0.0,                     !- Lower Limit Value
    1.0,                     !- Upper Limit Value
    Continuous,              !- Numeric Type
    Dimensionless;           !- Unit Type

ScheduleTypeLimits,
    TYPE_LIMITS_SCH_DAYLIGHTING_CON_ZN_8_PrivateBathroom,  !- Name
    0.0,                     !- Lower Limit Value
    1.0,                     !- Upper Limit Value
    Continuous,              !- Numeric Type
    Dimensionless;           !- Unit Type

ScheduleTypeLimits,
    TYPE_LIMITS_SCH_DAYLIGHTING_CON_ZN_5_SingleBedroom,  !- Name
    0.0,                     !- Lower Limit Value
    1.0,                     !- Upper Limit Value
    Continuous,              !- Numeric Type
    Dimensionless;           !- Unit Type

ScheduleTypeLimits,
    TYPE_LIMITS_SCH_DAYLIGHTING_CON_ZN_6_DoubleBedroom,  !- Name
    0.0,                     !- Lower Limit Value
    1.0,                     !- Upper Limit Value
    Continuous,              !- Numeric Type
    Dimensionless;           !- Unit Type

ScheduleTypeLimits,
    TYPE_LIMITS_SCH_ACT_PEOPLE_ZN_8_PrivateBathroom,  !- Name
    0.0,                     !- Lower Limit Value
    207.0,                   !- Upper Limit Value
    Continuous,              !- Numeric Type
    Power;                   !- Unit Type

ScheduleTypeLimits,
    TYPE_LIMITS_SCH_ACT_PEOPLE_ZN_2_Kitchen,  !- Name
    0.0,                     !- Lower Limit Value
    190.0,                   !- Upper Limit Value
    Continuous,              !- Numeric Type
    Power;                   !- Unit Type

ScheduleTypeLimits,
    TYPE_LIMITS_SCH_FLOW_RATE_FRACT_ZN_8_PrivateBathroom_Toilet_3,  !- Name
    0.0,                     !- Lower Limit Value
    1.0,                     !- Upper Limit Value
    Continuous,              !- Numeric Type
    Dimensionless;           !- Unit Type

ScheduleTypeLimits,
    TYPE_LIMITS_SCH_LIGHTS_ZN_2_Kitchen,  !- Name
    0.0,                     !- Lower Limit Value
    1.0,                     !- Upper Limit Value
    Continuous,              !- Numeric Type
    Dimensionless;           !- Unit Type

ScheduleTypeLimits,
    TYPE_LIMITS_SCH_ACT_PEOPLE_ZN_3_Bathroom,  !- Name
    0.0,                     !- Lower Limit Value
    207.0,                   !- Upper Limit Value
    Continuous,              !- Numeric Type
    Power;                   !- Unit Type

ScheduleTypeLimits,
    TYPE_LIMITS_SCH_GENERATION_SOURCE_SINK_GEN_CONST_ZN_7_DoubleBedroom,  !- Name
    0.0,                     !- Lower Limit Value
    1.0,                     !- Upper Limit Value
    Discrete,                !- Numeric Type
    Availability;            !- Unit Type

ScheduleTypeLimits,
    TYPE_LIMITS_SCH_INFILTRATION_ZN_8_PrivateBathroom,  !- Name
    0.0,                     !- Lower Limit Value
    1.0,                     !- Upper Limit Value
    Discrete,                !- Numeric Type
    Availability;            !- Unit Type

ScheduleTypeLimits,
    TYPE_LIMITS_SCH_GENERATOR_PV_Benq_0_0_0_0,  !- Name
    0.0,                     !- Lower Limit Value
    1.0,                     !- Upper Limit Value
    Discrete,                !- Numeric Type
    Availability;            !- Unit Type

ScheduleTypeLimits,
    TYPE_LIMITS_SCH_VENT_DFR_ZN_8_PrivateBathroom_0,  !- Name
    0.0,                     !- Lower Limit Value
    1.0,                     !- Upper Limit Value
    Continuous,              !- Numeric Type
    Dimensionless;           !- Unit Type

ScheduleTypeLimits,
    TYPE_LIMITS_SCH_INFILTRATION_ZN_7_DoubleBedroom,  !- Name
    0.0,                     !- Lower Limit Value
    1.0,                     !- Upper Limit Value
    Discrete,                !- Numeric Type
    Availability;            !- Unit Type

ScheduleTypeLimits,
    TYPE_LIMITS_SCH_FLOW_RATE_FRACT_ZN_8_PrivateBathroom_Sink_1,  !- Name
    0.0,                     !- Lower Limit Value
    1.0,                     !- Upper Limit Value
    Continuous,              !- Numeric Type
    Dimensionless;           !- Unit Type

ScheduleTypeLimits,
    TYPE_LIMITS_SCH_LIGHTS_ZN_3_Bathroom,  !- Name
    0.0,                     !- Lower Limit Value
    1.0,                     !- Upper Limit Value
    Continuous,              !- Numeric Type
    Dimensionless;           !- Unit Type

ScheduleTypeLimits,
    TYPE_LIMITS_SCH_INFILTRATION_ZN_2_Kitchen,  !- Name
    0.0,                     !- Lower Limit Value
    1.0,                     !- Upper Limit Value
    Discrete,                !- Numeric Type
    Availability;            !- Unit Type

ScheduleTypeLimits,
    TYPE_LIMITS_SCH_AVAIL_SOURCE_SINK_CO2_ZN_7_DoubleBedroom,  !- Name
    0.0,                     !- Lower Limit Value
    1.0,                     !- Upper Limit Value
    Discrete,                !- Numeric Type
    Availability;            !- Unit Type

ScheduleTypeLimits,
    TYPE_LIMITS_SCH_AVAIL_SOURCE_SINK_CO2_ZN_6_DoubleBedroom,  !- Name
    0.0,                     !- Lower Limit Value
    1.0,                     !- Upper Limit Value
    Discrete,                !- Numeric Type
    Availability;            !- Unit Type

ScheduleTypeLimits,
    TYPE_LIMITS_SCH_FLOW_RATE_FRACT_ZN_3_Bathroom_Shower_2,  !- Name
    0.0,                     !- Lower Limit Value
    1.0,                     !- Upper Limit Value
    Continuous,              !- Numeric Type
    Dimensionless;           !- Unit Type

ScheduleTypeLimits,
    TYPE_LIMITS_SCH_ILAS_ZN_1_LivingRoom,  !- Name
    0.0,                     !- Lower Limit Value
    1.0,                     !- Upper Limit Value
    Continuous,              !- Numeric Type
    Dimensionless;           !- Unit Type

ScheduleTypeLimits,
    TYPE_LIMITS_SCH_NUMBER_PEOPLE_ZN_8_PrivateBathroom,  !- Name
    0.0,                     !- Lower Limit Value
    1.0,                     !- Upper Limit Value
    Continuous,              !- Numeric Type
    Dimensionless;           !- Unit Type

ScheduleTypeLimits,
    TYPE_LIMITS_SCH_ACT_PEOPLE_ZN_4_Corridor,  !- Name
    0.0,                     !- Lower Limit Value
    190.0,                   !- Upper Limit Value
    Continuous,              !- Numeric Type
    Power;                   !- Unit Type

ScheduleTypeLimits,
    TYPE_LIMITS_SCH_ELECT_ZN_2_Kitchen_WashingMachine_3,  !- Name
    0.0,                     !- Lower Limit Value
    1.0,                     !- Upper Limit Value
    Continuous,              !- Numeric Type
    Dimensionless;           !- Unit Type

ScheduleTypeLimits,
    TYPE_LIMITS_SCH_NUMBER_PEOPLE_ZN_2_Kitchen,  !- Name
    0.0,                     !- Lower Limit Value
    1.0,                     !- Upper Limit Value
    Continuous,              !- Numeric Type
    Dimensionless;           !- Unit Type

ScheduleTypeLimits,
    TYPE_LIMITS_SCH_INFILTRATION_ZN_5_SingleBedroom,  !- Name
    0.0,                     !- Lower Limit Value
    1.0,                     !- Upper Limit Value
    Discrete,                !- Numeric Type
    Availability;            !- Unit Type

ScheduleTypeLimits,
    TYPE_LIMITS_SCH_FLOW_RATE_FRACT_ZN_2_Kitchen_Dishwasher_2,  !- Name
    0.0,                     !- Lower Limit Value
    1.0,                     !- Upper Limit Value
    Continuous,              !- Numeric Type
    Dimensionless;           !- Unit Type

ScheduleTypeLimits,
    TYPE_LIMITS_SCH_FLOW_RATE_FRACT_ZN_2_Kitchen_Sink_1,  !- Name
    0.0,                     !- Lower Limit Value